16
Properties=species:S:1:pos:R:3 pbc="F F F"
N       0.00000000       0.75000000       0.00000000 
N      -0.00000000      -0.75000000       0.00000000 
X       0.00000000       0.75000000       0.00000000 
He       0.00200000       0.75200000       0.00200000 
X       0.00200000       0.75200000       0.08000000 
He       0.00200000       0.75200000      -0.08000000 
X      -0.00000000      -0.75000000       0.00000000 
He       0.00200000      -0.74800000       0.00200000 
X       0.00200000      -0.74800000       0.08000000 
He       0.00200000      -0.74800000      -0.08000000 
He       0.00000000       0.00000000       0.50000000 
He       0.00000000       0.00000000      -0.50000000 
He      -0.50000000       0.00000000       0.00000000 
X       0.02000000       0.02000000       0.52000000 
X       0.02000000       0.02000000      -0.48000000 
X      -0.48000000       0.02000000       0.02000000 
